
*-----------------------------------------------------------------------
* Owner: austriamicrosystems
* HIT-Kit: Digital
* *********************** SIMULATION PARAMETERS ************************
* ----------------------------------------------------------------------
* format    : ELDO
* model     : RF INDUCTOR SP014S300C
* process   : C/B/S 35
* revision  : 3.0; 
* extracted : C35; 2002-06; mer(5617)
* doc#      : ENG-188 REV_5
* ----------------------------------------------------------------------
*  
*  
* ----------------------------------------------------------------------
*
.SUBCKT SP014S300C N1 N2 N3 
LS N1 N1X 1.245e-09
RS N1X N2 1.966e+00
CP N1 N2 1.315e-16
COX1 N1 N3X 2.992e-13
CSUB1 N3X N3 3.946e-14
RSUB1 N3X N3 1.704e+02 
COX2 N2 N3Y 3.240e-13
CSUB2 N3Y N3 2.561e-16
RSUB2 N3Y N3 1.810e+02
.ENDS SP014S300C
*----------------------------------------------------------------------

*-----------------------------------------------------------------------
* Owner: austriamicrosystems
* HIT-Kit: Digital
* *********************** SIMULATION PARAMETERS ************************
* ----------------------------------------------------------------------
* format    : ELDO
* model     : RF INDUCTOR SP018S300C
* process   : C/B/S 35
* revision  : 3.0; 
* extracted : C35; 2002-06; mer(5617)
* doc#      : ENG-188 REV_5
* ----------------------------------------------------------------------
*  
*  
* ----------------------------------------------------------------------
*
.SUBCKT SP018S300C N1 N2 N3 
LS N1 N1X 1.717e-09
RS N1X N2 2.294e+00
CP N1 N2 2.782e-15
COX1 N1 N3X 3.389e-13
CSUB1 N3X N3 2.590e-14
RSUB1 N3X N3 1.828e+02 
COX2 N2 N3Y 3.498e-13
CSUB2 N3Y N3 6.645e-15
RSUB2 N3Y N3 1.791e+02
.ENDS SP018S300C
*----------------------------------------------------------------------

*-----------------------------------------------------------------------
* Owner: austriamicrosystems
* HIT-Kit: Digital
* *********************** SIMULATION PARAMETERS ************************
* ----------------------------------------------------------------------
* format    : ELDO
* model     : RF INDUCTOR SP020S180C
* process   : C/B/S 35
* revision  : 3.0; 
* extracted : C35; 2002-06; mer(5617)
* doc#      : ENG-188 REV_5
* ----------------------------------------------------------------------
*  
*  
* ----------------------------------------------------------------------
*
.SUBCKT SP020S180C N1 N2 N3 
LS N1 N1X 1.936e-09
RS N1X N2 4.852e+00
CP N1 N2 3.244e-16
COX1 N1 N3X 1.392e-13
CSUB1 N3X N3 2.433e-14
RSUB1 N3X N3 3.041e+02 
COX2 N2 N3Y 1.463e-13
CSUB2 N3Y N3 1.000e-16
RSUB2 N3Y N3 3.223e+02
.ENDS SP020S180C
*----------------------------------------------------------------------

*-----------------------------------------------------------------------
* Owner: austriamicrosystems
* HIT-Kit: Digital
* *********************** SIMULATION PARAMETERS ************************
* ----------------------------------------------------------------------
* format    : ELDO
* model     : RF INDUCTOR SP023S200C
* process   : C/B/S 35
* revision  : 3.0; 
* extracted : C35; 2002-06; mer(5617)
* doc#      : ENG-188 REV_5
* ----------------------------------------------------------------------
*  
*  
* ----------------------------------------------------------------------
*
.SUBCKT SP023S200C N1 N2 N3 
LS N1 N1X 2.037e-09
RS N1X N2 3.995e+00
CP N1 N2 1.000e-16
COX1 N1 N3X 2.472e-13
CSUB1 N3X N3 3.499e-14
RSUB1 N3X N3 2.133e+02 
COX2 N2 N3Y 2.526e-13
CSUB2 N3Y N3 1.001e-16
RSUB2 N3Y N3 2.714e+02
.ENDS SP023S200C
*----------------------------------------------------------------------

*-----------------------------------------------------------------------
* Owner: austriamicrosystems
* HIT-Kit: Digital
* *********************** SIMULATION PARAMETERS ************************
* ----------------------------------------------------------------------
* format    : ELDO
* model     : RF INDUCTOR SP025C200C
* process   : C/B/S 35
* revision  : 3.0; 
* extracted : C35; 2002-06; mer(5617)
* doc#      : ENG-188 REV_5
* ----------------------------------------------------------------------
*  
*  
* ----------------------------------------------------------------------
*
.SUBCKT SP025C200C N1 N2 N3 
LS N1 N1X 2.190e-09
RS N1X N2 4.117e+00
CP N1 N2 2.207e-13
COX1 N1 N3X 9.345e-14
CSUB1 N3X N3 4.949e-14
RSUB1 N3X N3 5.214e+02 
COX2 N2 N3Y 2.931e-13
CSUB2 N3Y N3 5.973e-14
RSUB2 N3Y N3 1.269e+02
.ENDS SP025C200C
*----------------------------------------------------------------------

*-----------------------------------------------------------------------
* Owner: austriamicrosystems
* HIT-Kit: Digital
* *********************** SIMULATION PARAMETERS ************************
* ----------------------------------------------------------------------
* format    : ELDO
* model     : RF INDUCTOR SP026S200C
* process   : C/B/S 35
* revision  : 3.0; 
* extracted : C35; 2002-06; mer(5617)
* doc#      : ENG-188 REV_5
* ----------------------------------------------------------------------
*  
*  
* ----------------------------------------------------------------------
*
.SUBCKT SP026S200C N1 N2 N3 
LS N1 N1X 2.536e-09
RS N1X N2 5.572e+00
CP N1 N2 5.377e-16
COX1 N1 N3X 1.618e-13
CSUB1 N3X N3 4.254e-14
RSUB1 N3X N3 3.043e+02 
COX2 N2 N3Y 1.603e-13
CSUB2 N3Y N3 1.159e-14
RSUB2 N3Y N3 3.447e+02
.ENDS SP026S200C
*----------------------------------------------------------------------

*-----------------------------------------------------------------------
* Owner: austriamicrosystems
* HIT-Kit: Digital
* *********************** SIMULATION PARAMETERS ************************
* ----------------------------------------------------------------------
* format    : ELDO
* model     : RF INDUCTOR SP028C200C
* process   : C/B/S 35
* revision  : 3.0; 
* extracted : C35; 2002-06; mer(5617)
* doc#      : ENG-188 REV_5
* ----------------------------------------------------------------------
*  
*  
* ----------------------------------------------------------------------
*
.SUBCKT SP028C200C N1 N2 N3 
LS N1 N1X 2.791e-09
RS N1X N2 7.609e+00
CP N1 N2 4.746e-14
COX1 N1 N3X 1.505e-13
CSUB1 N3X N3 4.819e-14
RSUB1 N3X N3 3.789e+02 
COX2 N2 N3Y 1.850e-13
CSUB2 N3Y N3 4.382e-14
RSUB2 N3Y N3 2.077e+02
.ENDS SP028C200C
*----------------------------------------------------------------------

*-----------------------------------------------------------------------
* Owner: austriamicrosystems
* HIT-Kit: Digital
* *********************** SIMULATION PARAMETERS ************************
* ----------------------------------------------------------------------
* format    : ELDO
* model     : RF INDUCTOR SP028S300C
* process   : C/B/S 35
* revision  : 3.0; 
* extracted : C35; 2002-06; mer(5617)
* doc#      : ENG-188 REV_5
* ----------------------------------------------------------------------
*  
*  
* ----------------------------------------------------------------------
*
.SUBCKT SP028S300C N1 N2 N3 
LS N1 N1X 2.541e-09
RS N1X N2 2.983e+00
CP N1 N2 1.000e-16
COX1 N1 N3X 5.093e-13
CSUB1 N3X N3 5.972e-14
RSUB1 N3X N3 1.554e+02 
COX2 N2 N3Y 4.837e-13
CSUB2 N3Y N3 1.000e-16
RSUB2 N3Y N3 2.073e+02
.ENDS SP028S300C
*----------------------------------------------------------------------

*-----------------------------------------------------------------------
* Owner: austriamicrosystems
* HIT-Kit: Digital
* *********************** SIMULATION PARAMETERS ************************
* ----------------------------------------------------------------------
* format    : ELDO
* model     : RF INDUCTOR SP030C200C
* process   : C/B/S 35
* revision  : 3.0; 
* extracted : C35; 2002-06; mer(5617)
* doc#      : ENG-188 REV_5
* ----------------------------------------------------------------------
*  
*  
* ----------------------------------------------------------------------
*
.SUBCKT SP030C200C N1 N2 N3 
LS N1 N1X 2.991e-09
RS N1X N2 1.041e+01
CP N1 N2 1.989e-16
COX1 N1 N3X 1.409e-13
CSUB1 N3X N3 7.975e-14
RSUB1 N3X N3 3.214e+02 
COX2 N2 N3Y 1.466e-13
CSUB2 N3Y N3 5.584e-14
RSUB2 N3Y N3 1.916e+02
.ENDS SP030C200C
*----------------------------------------------------------------------

*-----------------------------------------------------------------------
* Owner: austriamicrosystems
* HIT-Kit: Digital
* *********************** SIMULATION PARAMETERS ************************
* ----------------------------------------------------------------------
* format    : ELDO
* model     : RF INDUCTOR SP037S180C
* process   : C/B/S 35
* revision  : 3.0; 
* extracted : C35; 2002-06; mer(5617)
* doc#      : ENG-188 REV_5
* ----------------------------------------------------------------------
*  
*  
* ----------------------------------------------------------------------
*
.SUBCKT SP037S180C N1 N2 N3 
LS N1 N1X 3.681e-09
RS N1X N2 1.018e+01
CP N1 N2 8.527e-16
COX1 N1 N3X 1.030e-13
CSUB1 N3X N3 6.752e-14
RSUB1 N3X N3 3.287e+02 
COX2 N2 N3Y 9.526e-14
CSUB2 N3Y N3 3.717e-14
RSUB2 N3Y N3 3.447e+02
.ENDS SP037S180C
*----------------------------------------------------------------------

*-----------------------------------------------------------------------
* Owner: austriamicrosystems
* HIT-Kit: Digital
* *********************** SIMULATION PARAMETERS ************************
* ----------------------------------------------------------------------
* format    : ELDO
* model     : RF INDUCTOR SP038S300C
* process   : C/B/S 35
* revision  : 3.0; 
* extracted : C35; 2002-06; mer(5617)
* doc#      : ENG-188 REV_5
* ----------------------------------------------------------------------
*  
*  
* ----------------------------------------------------------------------
*
.SUBCKT SP038S300C N1 N2 N3 
LS N1 N1X 3.670e-09
RS N1X N2 4.388e+00
CP N1 N2 3.098e-14
COX1 N1 N3X 5.788e-13
CSUB1 N3X N3 7.587e-14
RSUB1 N3X N3 1.531e+02 
COX2 N2 N3Y 5.451e-13
CSUB2 N3Y N3 2.057e-16
RSUB2 N3Y N3 1.952e+02
.ENDS SP038S300C
*----------------------------------------------------------------------

*-----------------------------------------------------------------------
* Owner: austriamicrosystems
* HIT-Kit: Digital
* *********************** SIMULATION PARAMETERS ************************
* ----------------------------------------------------------------------
* format    : ELDO
* model     : RF INDUCTOR SP040C200C
* process   : C/B/S 35
* revision  : 3.0; 
* extracted : C35; 2002-06; mer(5617)
* doc#      : ENG-188 REV_5
* ----------------------------------------------------------------------
*  
*  
* ----------------------------------------------------------------------
*
.SUBCKT SP040C200C N1 N2 N3 
LS N1 N1X 3.612e-09
RS N1X N2 7.711e+00
CP N1 N2 1.010e-13
COX1 N1 N3X 2.004e-13
CSUB1 N3X N3 3.818e-14
RSUB1 N3X N3 3.205e+02 
COX2 N2 N3Y 2.532e-13
CSUB2 N3Y N3 2.871e-14
RSUB2 N3Y N3 1.865e+02
.ENDS SP040C200C
*----------------------------------------------------------------------

*-----------------------------------------------------------------------
* Owner: austriamicrosystems
* HIT-Kit: Digital
* *********************** SIMULATION PARAMETERS ************************
* ----------------------------------------------------------------------
* format    : ELDO
* model     : RF INDUCTOR SP040C300C
* process   : C/B/S 35
* revision  : 3.0; 
* extracted : C35; 2002-06; mer(5617)
* doc#      : ENG-188 REV_5
* ----------------------------------------------------------------------
*  
*  
* ----------------------------------------------------------------------
*
.SUBCKT SP040C300C N1 N2 N3 
LS N1 N1X 3.557e-09
RS N1X N2 4.508e+00
CP N1 N2 4.614e-13
COX1 N1 N3X 1.818e-13
CSUB1 N3X N3 7.188e-14
RSUB1 N3X N3 4.740e+02 
COX2 N2 N3Y 5.108e-13
CSUB2 N3Y N3 1.847e-14
RSUB2 N3Y N3 9.825e+01
.ENDS SP040C300C
*----------------------------------------------------------------------

*-----------------------------------------------------------------------
* Owner: austriamicrosystems
* HIT-Kit: Digital
* *********************** SIMULATION PARAMETERS ************************
* ----------------------------------------------------------------------
* format    : ELDO
* model     : RF INDUCTOR SP045C200C
* process   : C/B/S 35
* revision  : 3.0; 
* extracted : C35; 2002-06; mer(5617)
* doc#      : ENG-188 REV_5
* ----------------------------------------------------------------------
*  
*  
* ----------------------------------------------------------------------
*
.SUBCKT SP045C200C N1 N2 N3 
LS N1 N1X 4.337e-09
RS N1X N2 7.017e+00
CP N1 N2 3.506e-13
COX1 N1 N3X 1.796e-13
CSUB1 N3X N3 3.213e-14
RSUB1 N3X N3 5.880e+02 
COX2 N2 N3Y 3.692e-13
CSUB2 N3Y N3 4.011e-14
RSUB2 N3Y N3 1.445e+02
.ENDS SP045C200C
*----------------------------------------------------------------------

*-----------------------------------------------------------------------
* Owner: austriamicrosystems
* HIT-Kit: Digital
* *********************** SIMULATION PARAMETERS ************************
* ----------------------------------------------------------------------
* format    : ELDO
* model     : RF INDUCTOR SP047S180C
* process   : C/B/S 35
* revision  : 3.0; 
* extracted : C35; 2002-06; mer(5617)
* doc#      : ENG-188 REV_5
* ----------------------------------------------------------------------
*  
*  
* ----------------------------------------------------------------------
*
.SUBCKT SP047S180C N1 N2 N3 
LS N1 N1X 4.672e-09
RS N1X N2 1.196e+01
CP N1 N2 9.935e-16
COX1 N1 N3X 1.117e-13
CSUB1 N3X N3 7.429e-14
RSUB1 N3X N3 2.685e+02 
COX2 N2 N3Y 1.004e-13
CSUB2 N3Y N3 3.081e-14
RSUB2 N3Y N3 3.368e+02
.ENDS SP047S180C
*----------------------------------------------------------------------

*-----------------------------------------------------------------------
* Owner: austriamicrosystems
* HIT-Kit: Digital
* *********************** SIMULATION PARAMETERS ************************
* ----------------------------------------------------------------------
* format    : ELDO
* model     : RF INDUCTOR SP050S155C
* process   : C/B/S 35
* revision  : 3.0; 
* extracted : C35; 2002-06; mer(5617)
* doc#      : ENG-188 REV_5
* ----------------------------------------------------------------------
*  
*  
* ----------------------------------------------------------------------
*
.SUBCKT SP050S155C N1 N2 N3 
LS N1 N1X 5.296e-09
RS N1X N2 1.603e+01
CP N1 N2 1.162e-15
COX1 N1 N3X 8.263e-14
CSUB1 N3X N3 4.827e-14
RSUB1 N3X N3 3.489e+02 
COX2 N2 N3Y 8.589e-14
CSUB2 N3Y N3 2.731e-14
RSUB2 N3Y N3 4.155e+02
.ENDS SP050S155C
*----------------------------------------------------------------------

*-----------------------------------------------------------------------
* Owner: austriamicrosystems
* HIT-Kit: Digital
* *********************** SIMULATION PARAMETERS ************************
* ----------------------------------------------------------------------
* format    : ELDO
* model     : RF INDUCTOR SP051C300C
* process   : C/B/S 35
* revision  : 3.0; 
* extracted : C35; 2002-06; mer(5617)
* doc#      : ENG-188 REV_5
* ----------------------------------------------------------------------
*  
*  
* ----------------------------------------------------------------------
*
.SUBCKT SP051C300C N1 N2 N3 
LS N1 N1X 4.895e-09
RS N1X N2 5.945e+00
CP N1 N2 5.619e-13
COX1 N1 N3X 3.272e-13
CSUB1 N3X N3 6.843e-14
RSUB1 N3X N3 2.925e+02 
COX2 N2 N3Y 6.784e-13
CSUB2 N3Y N3 3.851e-14
RSUB2 N3Y N3 1.002e+02
.ENDS SP051C300C
*----------------------------------------------------------------------

*-----------------------------------------------------------------------
* Owner: austriamicrosystems
* HIT-Kit: Digital
* *********************** SIMULATION PARAMETERS ************************
* ----------------------------------------------------------------------
* format    : ELDO
* model     : RF INDUCTOR SP068C300C
* process   : C/B/S 35
* revision  : 3.0; 
* extracted : C35; 2002-06; mer(5617)
* doc#      : ENG-188 REV_5
* ----------------------------------------------------------------------
*  
*  
* ----------------------------------------------------------------------
*
.SUBCKT SP068C300C N1 N2 N3 
LS N1 N1X 6.433e-09
RS N1X N2 6.803e+00
CP N1 N2 7.733e-13
COX1 N1 N3X 3.100e-13
CSUB1 N3X N3 5.860e-14
RSUB1 N3X N3 3.875e+02 
COX2 N2 N3Y 7.909e-13
CSUB2 N3Y N3 5.427e-14
RSUB2 N3Y N3 1.053e+02
.ENDS SP068C300C
*----------------------------------------------------------------------

*-----------------------------------------------------------------------
* Owner: austriamicrosystems
* HIT-Kit: Digital
* *********************** SIMULATION PARAMETERS ************************
* ----------------------------------------------------------------------
* format    : ELDO
* model     : RF INDUCTOR SP090C200C
* process   : C/B/S 35
* revision  : 3.0; 
* extracted : C35; 2002-06; mer(5617)
* doc#      : ENG-188 REV_5
* ----------------------------------------------------------------------
*  
*  
* ----------------------------------------------------------------------
*
.SUBCKT SP090C200C N1 N2 N3 
LS N1 N1X 8.769e-09
RS N1X N2 1.275e+01
CP N1 N2 3.645e-13
COX1 N1 N3X 1.523e-13
CSUB1 N3X N3 5.968e-14
RSUB1 N3X N3 5.178e+02 
COX2 N2 N3Y 3.605e-13
CSUB2 N3Y N3 6.564e-14
RSUB2 N3Y N3 1.471e+02
.ENDS SP090C200C
*----------------------------------------------------------------------

*-----------------------------------------------------------------------
* Owner: austriamicrosystems
* HIT-Kit: Digital
* *********************** SIMULATION PARAMETERS ************************
* ----------------------------------------------------------------------
* format    : ELDO
* model     : RF INDUCTOR SP090S155C
* process   : C/B/S 35
* revision  : 3.0; 
* extracted : C35; 2002-06; mer(5617)
* doc#      : ENG-188 REV_5
* ----------------------------------------------------------------------
*  
*  
* ----------------------------------------------------------------------
*
.SUBCKT SP090S155C N1 N2 N3 
LS N1 N1X 9.088e-09
RS N1X N2 3.041e+01
CP N1 N2 1.093e-15
COX1 N1 N3X 7.481e-14
CSUB1 N3X N3 4.402e-14
RSUB1 N3X N3 2.830e+02 
COX2 N2 N3Y 8.410e-14
CSUB2 N3Y N3 3.604e-14
RSUB2 N3Y N3 3.926e+02
.ENDS SP090S155C
*----------------------------------------------------------------------

*-----------------------------------------------------------------------
* Owner: austriamicrosystems
* HIT-Kit: Digital
* *********************** SIMULATION PARAMETERS ************************
* ----------------------------------------------------------------------
* format    : ELDO
* model     : RF INDUCTOR SP112C300C
* process   : C/B/S 35
* revision  : 3.0; 
* extracted : C35; 2002-06; mer(5617)
* doc#      : ENG-188 REV_5
* ----------------------------------------------------------------------
*  
*  
* ----------------------------------------------------------------------
*
.SUBCKT SP112C300C N1 N2 N3 
LS N1 N1X 1.122e-08
RS N1X N2 1.113e+01
CP N1 N2 6.914e-13
COX1 N1 N3X 3.096e-13
CSUB1 N3X N3 1.461e-13
RSUB1 N3X N3 3.394e+02 
COX2 N2 N3Y 7.005e-13
CSUB2 N3Y N3 4.202e-14
RSUB2 N3Y N3 1.045e+02
.ENDS SP112C300C
*----------------------------------------------------------------------

*-----------------------------------------------------------------------
* Owner: austriamicrosystems
* HIT-Kit: Digital
* *********************** SIMULATION PARAMETERS ************************
* ----------------------------------------------------------------------
* format    : ELDO
* model     : RF INDUCTOR SP140C200C
* process   : C/B/S 35
* revision  : 3.0; 
* extracted : C35; 2002-06; mer(5617)
* doc#      : ENG-188 REV_5
* ----------------------------------------------------------------------
*  
*  
* ----------------------------------------------------------------------
*
.SUBCKT SP140C200C N1 N2 N3 
LS N1 N1X 1.403e-08
RS N1X N2 2.035e+01
CP N1 N2 3.788e-13
COX1 N1 N3X 1.229e-13
CSUB1 N3X N3 7.911e-14
RSUB1 N3X N3 3.914e+02 
COX2 N2 N3Y 3.549e-13
CSUB2 N3Y N3 7.239e-14
RSUB2 N3Y N3 1.382e+02
.ENDS SP140C200C
*----------------------------------------------------------------------

*-----------------------------------------------------------------------
* Owner: austriamicrosystems
* HIT-Kit: Digital
* *********************** SIMULATION PARAMETERS ************************
* ----------------------------------------------------------------------
* format    : ELDO
* model     : RF INDUCTOR SP200C200C
* process   : C/B/S 35
* revision  : 3.0; 
* extracted : C35; 2002-06; mer(5617)
* doc#      : ENG-188 REV_5
* ----------------------------------------------------------------------
*  
*  
* ----------------------------------------------------------------------
*
.SUBCKT SP200C200C N1 N2 N3 
LS N1 N1X 2.020e-08
RS N1X N2 2.894e+01
CP N1 N2 3.916e-13
COX1 N1 N3X 4.121e-13
CSUB1 N3X N3 1.056e-13
RSUB1 N3X N3 2.238e+03 
COX2 N2 N3Y 3.313e-13
CSUB2 N3Y N3 5.000e-16
RSUB2 N3Y N3 1.556e+02
.ENDS SP200C200C
*----------------------------------------------------------------------

*-----------------------------------------------------------------------
* Owner: austriamicrosystems
* HIT-Kit: Digital
* *********************** SIMULATION PARAMETERS ************************
* ----------------------------------------------------------------------
* format    : ELDO
* model     : RF INDUCTOR SY014C165C
* process   : C/B/S 35
* revision  : 3.0; 
* extracted : C35; 2002-06; mer(5617)
* doc#      : ENG-188 REV_5
* ----------------------------------------------------------------------
*  
*  
* ----------------------------------------------------------------------
*
.SUBCKT SY014C165C N1 N2 N3 
LS N1 N1X 1.396e-09
RS N1X N2 3.185e+00
CP N1 N2 5.056e-15
COX1 N1 N3X 1.433e-13
CSUB1 N3X N3 7.393e-15
RSUB1 N3X N3 3.312e+02 
COX2 N2 N3Y 1.410e-13
CSUB2 N3Y N3 4.530e-15
RSUB2 N3Y N3 3.097e+02
.ENDS SY014C165C
*----------------------------------------------------------------------

*-----------------------------------------------------------------------
* Owner: austriamicrosystems
* HIT-Kit: Digital
* *********************** SIMULATION PARAMETERS ************************
* ----------------------------------------------------------------------
* format    : ELDO
* model     : RF INDUCTOR SY015C200C
* process   : C/B/S 35
* revision  : 3.0; 
* extracted : C35; 2002-06; mer(5617)
* doc#      : ENG-188 REV_5
* ----------------------------------------------------------------------
*  
*  
* ----------------------------------------------------------------------
*
.SUBCKT SY015C200C N1 N2 N3 
LS N1 N1X 1.419e-09
RS N1X N2 3.327e+00
CP N1 N2 2.640e-16
COX1 N1 N3X 2.167e-13
CSUB1 N3X N3 1.531e-14
RSUB1 N3X N3 2.570e+02 
COX2 N2 N3Y 2.168e-13
CSUB2 N3Y N3 2.631e-15
RSUB2 N3Y N3 2.328e+02
.ENDS SY015C200C
*----------------------------------------------------------------------

*-----------------------------------------------------------------------
* Owner: austriamicrosystems
* HIT-Kit: Digital
* *********************** SIMULATION PARAMETERS ************************
* ----------------------------------------------------------------------
* format    : ELDO
* model     : RF INDUCTOR SY016C180C
* process   : C/B/S 35
* revision  : 3.0; 
* extracted : C35; 2002-06; mer(5617)
* doc#      : ENG-188 REV_5
* ----------------------------------------------------------------------
*  
*  
* ----------------------------------------------------------------------
*
.SUBCKT SY016C180C N1 N2 N3 
LS N1 N1X 1.524e-09
RS N1X N2 3.324e+00
CP N1 N2 1.000e-16
COX1 N1 N3X 1.796e-13
CSUB1 N3X N3 3.165e-14
RSUB1 N3X N3 2.961e+02 
COX2 N2 N3Y 1.734e-13
CSUB2 N3Y N3 2.573e-14
RSUB2 N3Y N3 2.843e+02
.ENDS SY016C180C
*----------------------------------------------------------------------

*-----------------------------------------------------------------------
* Owner: austriamicrosystems
* HIT-Kit: Digital
* *********************** SIMULATION PARAMETERS ************************
* ----------------------------------------------------------------------
* format    : ELDO
* model     : RF INDUCTOR SY017C165C
* process   : C/B/S 35
* revision  : 3.0; 
* extracted : C35; 2002-06; mer(5617)
* doc#      : ENG-188 REV_5
* ----------------------------------------------------------------------
*  
*  
* ----------------------------------------------------------------------
*
.SUBCKT SY017C165C N1 N2 N3 
LS N1 N1X 1.692e-09
RS N1X N2 4.170e+00
CP N1 N2 1.000e-16
COX1 N1 N3X 1.696e-13
CSUB1 N3X N3 1.106e-14
RSUB1 N3X N3 3.263e+02 
COX2 N2 N3Y 1.681e-13
CSUB2 N3Y N3 2.775e-15
RSUB2 N3Y N3 3.010e+02
.ENDS SY017C165C
*----------------------------------------------------------------------

*-----------------------------------------------------------------------
* Owner: austriamicrosystems
* HIT-Kit: Digital
* *********************** SIMULATION PARAMETERS ************************
* ----------------------------------------------------------------------
* format    : ELDO
* model     : RF INDUCTOR SY019C180C
* process   : C/B/S 35
* revision  : 3.0; 
* extracted : C35; 2002-06; mer(5617)
* doc#      : ENG-188 REV_5
* ----------------------------------------------------------------------
*  
*  
* ----------------------------------------------------------------------
*
.SUBCKT SY019C180C N1 N2 N3 
LS N1 N1X 1.889e-09
RS N1X N2 4.250e+00
CP N1 N2 1.000e-16
COX1 N1 N3X 1.989e-13
CSUB1 N3X N3 1.609e-14
RSUB1 N3X N3 3.043e+02 
COX2 N2 N3Y 1.954e-13
CSUB2 N3Y N3 1.150e-14
RSUB2 N3Y N3 2.821e+02
.ENDS SY019C180C
*----------------------------------------------------------------------

*-----------------------------------------------------------------------
* Owner: austriamicrosystems
* HIT-Kit: Digital
* *********************** SIMULATION PARAMETERS ************************
* ----------------------------------------------------------------------
* format    : ELDO
* model     : RF INDUCTOR SY028C160C
* process   : C/B/S 35
* revision  : 3.0; 
* extracted : C35; 2002-06; mer(5617)
* doc#      : ENG-188 REV_5
* ----------------------------------------------------------------------
*  
*  
* ----------------------------------------------------------------------
*
.SUBCKT SY028C160C N1 N2 N3 
LS N1 N1X 2.823e-09
RS N1X N2 6.581e+00
CP N1 N2 2.760e-15
COX1 N1 N3X 1.545e-13
CSUB1 N3X N3 3.957e-14
RSUB1 N3X N3 4.039e+02 
COX2 N2 N3Y 1.230e-13
CSUB2 N3Y N3 2.642e-14
RSUB2 N3Y N3 3.668e+02
.ENDS SY028C160C
*----------------------------------------------------------------------

*-----------------------------------------------------------------------
* Owner: austriamicrosystems
* HIT-Kit: Digital
* *********************** SIMULATION PARAMETERS ************************
* ----------------------------------------------------------------------
* format    : ELDO
* model     : RF INDUCTOR SP014S300D
* process   : C/B/S 35
* revision  : 3.0; 
* extracted : C35B4 B11404 022PD2; 2003-02; kmo(5966)
* doc#      : ENG-188 REV_5
* ----------------------------------------------------------------------
*  
*  
* ----------------------------------------------------------------------
*
.SUBCKT SP014S300D N1 N2 N3 
LS N1 N1X 1.334e-09
RS N1X N2 2.146e+00
CP N1 N2 1.448e-14
COX1 N1 N3X 8.332e-13
CSUB1 N3X N3 1.699e-14
RSUB1 N3X N3 3.868e+02 
COX2 N2 N3Y 9.089e-13
CSUB2 N3Y N3 5.473e-17
RSUB2 N3Y N3 3.855e+02
.ENDS SP014S300D
*----------------------------------------------------------------------

*-----------------------------------------------------------------------
* Owner: austriamicrosystems
* HIT-Kit: Digital
* *********************** SIMULATION PARAMETERS ************************
* ----------------------------------------------------------------------
* format    : ELDO
* model     : RF INDUCTOR SP020S180D
* process   : C/B/S 35
* revision  : 3.0; 
* extracted : C35B4 B11404 022PD2; 2003-02; kmo(5966)
* doc#      : ENG-188 REV_5
* ----------------------------------------------------------------------
*  
*  
* ----------------------------------------------------------------------
*
.SUBCKT SP020S180D N1 N2 N3 
LS N1 N1X 2.006e-09
RS N1X N2 5.116e+00
CP N1 N2 1.094e-16
COX1 N1 N3X 4.962e-13
CSUB1 N3X N3 1.404e-14
RSUB1 N3X N3 6.657e+02 
COX2 N2 N3Y 5.224e-13
CSUB2 N3Y N3 3.794e-15
RSUB2 N3Y N3 6.229e+02
.ENDS SP020S180D
*----------------------------------------------------------------------

*-----------------------------------------------------------------------
* Owner: austriamicrosystems
* HIT-Kit: Digital
* *********************** SIMULATION PARAMETERS ************************
* ----------------------------------------------------------------------
* format    : ELDO
* model     : RF INDUCTOR SP026S200D
* process   : C/B/S 35
* revision  : 3.0; 
* extracted : C35B4 B11404 022PD2; 2003-02; kmo(5966)
* doc#      : ENG-188 REV_5
* ----------------------------------------------------------------------
*  
*  
* ----------------------------------------------------------------------
*
.SUBCKT SP026S200D N1 N2 N3 
LS N1 N1X 2.606e-09
RS N1X N2 6.107e+00
CP N1 N2 1.000e-18
COX1 N1 N3X 4.360e-13
CSUB1 N3X N3 4.009e-14
RSUB1 N3X N3 7.196e+02 
COX2 N2 N3Y 3.409e-13
CSUB2 N3Y N3 2.566e-14
RSUB2 N3Y N3 6.595e+02
.ENDS SP026S200D
*----------------------------------------------------------------------

*-----------------------------------------------------------------------
* Owner: austriamicrosystems
* HIT-Kit: Digital
* *********************** SIMULATION PARAMETERS ************************
* ----------------------------------------------------------------------
* format    : ELDO
* model     : RF INDUCTOR SP037S180D
* process   : C/B/S 35
* revision  : 3.0; 
* extracted : C35B4 B11404 022PD2; 2003-02; kmo(5966)
* doc#      : ENG-188 REV_5
* ----------------------------------------------------------------------
*  
*  
* ----------------------------------------------------------------------
*
.SUBCKT SP037S180D N1 N2 N3 
LS N1 N1X 3.744e-09
RS N1X N2 1.244e+01
CP N1 N2 1.000e-18
COX1 N1 N3X 7.453e-14
CSUB1 N3X N3 5.421e-14
RSUB1 N3X N3 4.634e+02 
COX2 N2 N3Y 6.469e-14
CSUB2 N3Y N3 4.133e-14
RSUB2 N3Y N3 4.573e+02
.ENDS SP037S180D
*----------------------------------------------------------------------

*-----------------------------------------------------------------------
* Owner: austriamicrosystems
* HIT-Kit: Digital